26
02/17/2022 08:58, XYZ structure generated by mol3D Class, molSimplify
N 	-3.017600	-3.530300	2.349600
C 	-2.615900	-4.432400	1.256200
C 	-2.488900	-5.847300	1.791000
N 	-3.635500	-6.158300	2.698500
C 	-4.875200	-6.476100	1.929300
C 	-6.079300	-6.302500	2.839900
N 	-5.934600	-5.015500	3.513900
Mo 	-4.019200	-4.386800	3.871400
N 	-2.939200	-5.418200	5.192700
C 	-2.408100	-6.730600	4.754800
C 	-3.280300	-7.268800	3.637000
H 	-2.414500	-7.453100	5.589400
H 	-1.350600	-6.637400	4.435100
H 	-2.789800	-8.092100	3.089600
H 	-4.220300	-7.643000	4.061700
H 	-7.005000	-6.336200	2.238400
H 	-6.140000	-7.142800	3.556700
H 	-4.817200	-7.495900	1.511600
H 	-4.933300	-5.757600	1.101500
H 	-1.652000	-4.148600	0.806500
H 	-3.362100	-4.383400	0.439700
H 	-2.433900	-6.594000	0.980200
H 	-1.576000	-5.922600	2.396900
H 	-2.916026	-2.440192	2.585708
H 	-6.602478	-4.228284	3.948215
H 	-2.835211	-4.788610	6.113136
